*Heading
** Job name: Cube_Cyclic_Disp Model name: Model-1
** Generated by: Abaqus/CAE 6.14-1
*Preprint, echo=NO, model=NO, history=NO, contact=NO
**
** PARTS
**
*Part, name=unit_cube
*Node
      1,           1.,           1.,           1.
      2,           1.,           0.,           1.
      3,           1.,           1.,           0.
      4,           1.,           0.,           0.
      5,           0.,           1.,           1.
      6,           0.,           0.,           1.
      7,           0.,           1.,           0.
      8,           0.,           0.,           0.
*Element, type=C3D8R
1, 5, 6, 8, 7, 1, 2, 4, 3
*Nset, nset=Set-1, generate
 1,  8,  1
*Elset, elset=Set-1
 1,
** Section: Section-1
*Solid Section, elset=Set-1, material=mat2
,
*End Part
**  
**
** ASSEMBLY
**
*Assembly, name=Assembly
**  
*Instance, name=unit_cube-1, part=unit_cube
*End Instance
**  
*Nset, nset=Set-1, instance=unit_cube-1, generate
 2,  8,  2
*Nset, nset=Set-2, instance=unit_cube-1
 6,
*Nset, nset=Set-3, instance=unit_cube-1, generate
 1,  7,  2
*Elset, elset=Set-3, instance=unit_cube-1
 1,
*Nset, nset=Set-4, instance=unit_cube-1, generate
 1,  7,  2
*Nset, nset=Set-5, instance=unit_cube-1
 2,
*Nset, nset=Set-6, instance=unit_cube-1
 8,
*Nset, nset=Set-7, instance=unit_cube-1, generate
 1,  4,  1
*Elset, elset=Set-7, instance=unit_cube-1
 1,
*Nset, nset=Set-8, instance=unit_cube-1
 1, 2
*Nset, nset=Set-9, instance=unit_cube-1
 7, 8
*Nset, nset=Set-10, instance=unit_cube-1
 8,
*Nset, nset=Set-11, instance=unit_cube-1
 2,
*Nset, nset=Set-12, instance=unit_cube-1
 5, 7, 8
*Elset, elset=_Surf-1_S2, internal, instance=unit_cube-1
 1,
*Surface, type=ELEMENT, name=Surf-1
_Surf-1_S2, S2
*Elset, elset=_Surf-2_S6, internal, instance=unit_cube-1
 1,
*Surface, type=ELEMENT, name=Surf-2
_Surf-2_S6, S6
*End Assembly
*Amplitude, name=load_path, definition=EQUALLY SPACED, fixed interval=0.2
 0., 1.0, 1.5, -1.5, 2.0, -2.0, 0.
** 
** MATERIALS
** 
*Material, name=mat2
*Elastic
179800., 0.3
*Plastic, hardening=COMBINED, datatype=PARAMETERS, number backstresses=2
 318.5, 11608.2,   145.2,  1026.3,     4.7
*Cyclic Hardening, parameters
 318.5, 100.7,    8.
** BOUNDARY CONDITIONS
** 
** Name: bottom_fix Type: Displacement/Rotation
*Boundary
Set-1, 2, 2
** Name: corner_fix Type: Displacement/Rotation
*Boundary
Set-2, 1, 1
Set-2, 3, 3
** Name: corner_x Type: Displacement/Rotation
*Boundary
Set-10, 1, 1
** Name: corner_z Type: Displacement/Rotation
*Boundary
Set-11, 3, 3
** ----------------------------------------------------------------
** 
** STEP: loading
** 
*Step, name=loading, nlgeom=NO, inc=100000
*Static
0.005, 1.2, 5e-10, 0.005
** 
** BOUNDARY CONDITIONS
** 
** Name: face_load Type: Displacement/Rotation
*Cload, amplitude=load_path
Set-3, 2, 79.625
** 
** CONTROLS
** 
*Controls, reset
*Controls, parameters=time incrementation
8, 10, 20, , , , , , , , 
*Controls, parameters=field, field=displacement
5e-08, 1e-06, , , 5e-08, , , 
, , 1e-14
*Controls, parameters=field, field=hydrostatic fluid pressure
5e-08, 1e-06, , , 5e-08, , , 
*Controls, parameters=field, field=rotation
5e-08, 1e-06, , , 5e-08, , , 
*Controls, parameters=field, field=electrical potential
5e-08, 1e-06, , , 5e-08, , , 
** 
** OUTPUT REQUESTS
** 
*Restart, write, frequency=0
** 
** FIELD OUTPUT: F-Output-1
** 
*Output, field, time interval=0.005
*Node Output
CF, RF, U
*Element Output, directions=YES
LE, PE, PEEQ, PEMAG, S, SDV
*Contact Output
CDISP, CSTRESS
** 
** HISTORY OUTPUT: H-Output-1
** 
*Output, history, variable=PRESELECT
*End Step
