*Heading
** Job name: Lamarche-1-Beam Model name: Lamarche-1-Beam
** Generated by: Abaqus/CAE 6.14-1
*Preprint, echo=NO, model=NO, history=NO, contact=NO
**
** PARTS
**
*Part, name=Part-1
*Node
      1,           0.,           0.,           0.
      2,       1862.5,           1.,           0.
      3,        3725.,           0.,           0.
      4,     232.8125,        0.125,           0.
      5,      465.625,         0.25,           0.
      6,     698.4375,        0.375,           0.
      7,       931.25,          0.5,           0.
      8,    1164.0625,        0.625,           0.
      9,     1396.875,         0.75,           0.
     10,    1629.6875,        0.875,           0.
     11,    2095.3125,        0.875,           0.
     12,     2328.125,         0.75,           0.
     13,    2560.9375,        0.625,           0.
     14,      2793.75,          0.5,           0.
     15,    3026.5625,        0.375,           0.
     16,     3259.375,         0.25,           0.
     17,    3492.1875,        0.125,           0.
*Element, type=B31OS
1,  1,  4
2,  4,  5
3,  5,  6
4,  6,  7
5,  7,  8
6,  8,  9
7,  9, 10
8, 10,  2
 9,  2, 11
10, 11, 12
11, 12, 13
12, 13, 14
13, 14, 15
14, 15, 16
15, 16, 17
16, 17,  3
*Nset, nset=Set-1, generate
  1,  17,   1
*Elset, elset=Set-1, generate
  1,  16,   1
*Nset, nset=Set-2, generate
  1,  17,   1
*Elset, elset=Set-2, generate
  1,  16,   1
*Nset, nset=Set-4, generate
  1,  17,   1
*Elset, elset=Set-4, generate
  1,  16,   1
** Section: Section-1  Profile: Profile-1
*Beam Section, elset=Set-1, material=umat, temperature=GRADIENTS, section=I
159., 318., 307., 307., 20.6, 20.6, 13.1
0.,1.,0.
*Transverse Shear
5.5846e+08, 5.5846e+08, 
*End Part
**  
**
** ASSEMBLY
**
*Assembly, name=Assembly
**  
*Instance, name=Part-1-1, part=Part-1
          0.,           0.,           0.
          0.,           0.,           0., 0.577350279552042, -0.577350279552042, 0.577350279552042, 119.999999109416
*End Instance
**  
*Nset, nset=base_node, instance=Part-1-1
 1,
*Nset, nset=control_node, instance=Part-1-1
 3,
*End Assembly
** 
** MATERIALS
** 
*Material, name=elastic
*Elastic
200000., 0.3
*Material, name=umat
*Depvar
      4,
*User Material, constants=16
200000., 373.72, 141.47,   15.2, 135.95, 211.16, 25621., 235.12
 942.18,   3.16,  297.4,   307.,   20.6,   13.1,     5.,     5.
** 
** BOUNDARY CONDITIONS
** 
** Name: base_bc Type: Displacement/Rotation
*Boundary
base_node, 1, 1
base_node, 2, 2
base_node, 3, 3
base_node, 4, 4
base_node, 6, 6
** Name: top_bc Type: Displacement/Rotation
*Boundary
control_node, 1, 1
control_node, 2, 2
control_node, 3, 3
control_node, 4, 4
control_node, 6, 6
** ----------------------------------------------------------------
** 
** STEP: Step-2
** 
*Step, name=Step-2, nlgeom=YES
*Static
1., 1., 1e-05, 1.
** 
** BOUNDARY CONDITIONS
** 
** Name: top_bc Type: Displacement/Rotation
*Boundary
control_node, 3, 3
** 
** OUTPUT REQUESTS
** 
*Restart, write, frequency=0
** 
** FIELD OUTPUT: F-Output-1
** 
*Output, field
*Node Output
CF, RF, U
*Element Output, directions=YES
LE, PE, PEEQ, PEMAG, S, SF
*Contact Output
CDISP, CSTRESS
** 
** HISTORY OUTPUT: H-Output-1
** 
*Output, history, variable=PRESELECT
*End Step
** ----------------------------------------------------------------
** 
** STEP: loading
** 
*Step, name=loading, nlgeom=YES, inc=100000
*Static
0.01, 1., 1e-10, 0.01
** 
** BOUNDARY CONDITIONS
** 
** Name: base_bc Type: Displacement/Rotation
*Boundary, op=NEW
base_node, 1, 1
base_node, 2, 2
base_node, 3, 3
base_node, 4, 4
base_node, 6, 6
** Name: top_bc Type: Displacement/Rotation
*Boundary, op=NEW
control_node, 1, 1
control_node, 2, 2
control_node, 4, 4
control_node, 6, 6
** Name: top_disp Type: Displacement/Rotation
*Boundary, op=NEW
control_node, 3, 3, -22.
** 
** OUTPUT REQUESTS
** 
*Restart, write, frequency=0
** 
** FIELD OUTPUT: F-Output-1
** 
*Output, field
*Node Output
CF, RF, U
*Element Output, directions=YES
LE, PE, PEEQ, PEMAG, S, SF
*Contact Output
CDISP, CSTRESS
** 
** HISTORY OUTPUT: H-Output-1
** 
*Output, history, variable=PRESELECT
*End Step
