*Heading
** Job name: Truss-No-UMAT-Force-Cyclic Model name: Truss-No-UMAT-Force-Cyclic
** Generated by: Abaqus/CAE 6.14-1
*Preprint, echo=NO, model=NO, history=NO, contact=NO
**
** PARTS
**
*Part, name=truss
*Node
      1,           0.,           0.,           0.
      2,        1000.,           0.,           0.
*Element, type=T3D2
1, 1, 2
*Nset, nset=Set-1
 1, 2
*Elset, elset=Set-1
 1,
*Nset, nset=Set-2
 1, 2
*Elset, elset=Set-2
 1,
*Nset, nset=Set-6
 1, 2
*Elset, elset=Set-6
 1,
*Orientation, name=Ori-1
1., 0., 0., 0., 1., 0.
1, 0.
** Section: truss-no-umat
*Solid Section, elset=Set-6, material=NL-IK
1.,
*End Part
**  
**
** ASSEMBLY
**
*Assembly, name=Assembly
**  
*Instance, name=truss-1, part=truss
*End Instance
**  
*Nset, nset=Set-1, instance=truss-1
 1,
*Nset, nset=Set-2, instance=truss-1
 2,
*Nset, nset=Set-3, instance=truss-1
 2,
*Nset, nset=Set-4, instance=truss-1
 2,
*End Assembly
*Amplitude, name=cyclic, definition=EQUALLY SPACED, fixed interval=0.1
             0.,            0.25,           -0.25,             0.5,            -0.5,            0.75,           -0.75,              1.
            -1.,              0.
*Amplitude, name=strain_data, definition=EQUALLY SPACED, fixed interval=0.000633
 -3.5714286e-06,   7.1428571e-06,   1.7857143e-05,   2.8571429e-05,   4.2857143e-05,   4.2857143e-05,   4.2857143e-05,   5.7142857e-05
  5.7142857e-05,   4.2857143e-05,   5.7142857e-05,   4.2857143e-05,   4.2857143e-05,   5.7142857e-05,   4.2857143e-05,   4.2857143e-05
  5.7142857e-05,   4.2857143e-05,   5.7142857e-05,   7.1428571e-05,   7.1428571e-05,   7.1428571e-05,   7.1428571e-05,   7.1428571e-05
  8.5714286e-05,   8.5714286e-05,   8.5714286e-05,   8.5714286e-05,          0.0001,   0.00011428571,   0.00011428571,   0.00011428571
  0.00011428571,   0.00012857143,   0.00012857143,   0.00012857143,   0.00012857143,   0.00012857143,   0.00014285714,   0.00015714286
  0.00014285714,   0.00014285714,   0.00014285714,   0.00014285714,   0.00015714286,   0.00015714286,   0.00014285714,   0.00017142857
  0.00018571429,          0.0002,   0.00021428571,   0.00021428571,   0.00021428571,   0.00022857143,   0.00021428571,   0.00021428571
  0.00022857143,   0.00021428571,   0.00021428571,   0.00021428571,   0.00022857143,   0.00022857143,   0.00022857143,   0.00022857143
  0.00024285714,   0.00024285714,   0.00025714286,   0.00024285714,   0.00024285714,   0.00025714286,   0.00025714286,   0.00025714286
  0.00027142857,   0.00027142857,   0.00028571429,          0.0003,   0.00028571429,   0.00028571429,          0.0003,          0.0003
         0.0003,          0.0003,          0.0003,   0.00031428571,   0.00032857143,   0.00032857143,   0.00032857143,   0.00032857143
  0.00032857143,   0.00034285714,   0.00034285714,   0.00034285714,   0.00034285714,   0.00034285714,   0.00034285714,   0.00035714286
  0.00035714286,   0.00037142857,   0.00037142857,   0.00037142857,   0.00038571429,          0.0004,          0.0004,          0.0004
         0.0004,          0.0004,   0.00041428571,   0.00041428571,   0.00041428571,   0.00041428571,   0.00041428571,   0.00042857143
  0.00042857143,   0.00041428571,   0.00041428571,   0.00041428571,   0.00041428571,   0.00041428571,   0.00041428571,   0.00042857143
  0.00044285714,   0.00045714286,   0.00047142857,   0.00048571429,          0.0005,          0.0005,          0.0005,          0.0005
         0.0005,          0.0005,          0.0005,          0.0005,          0.0005,          0.0005,          0.0005,          0.0005
         0.0005,          0.0005,          0.0005,          0.0005,          0.0005,   0.00051428571,   0.00051428571,   0.00052857143
  0.00054285714,   0.00055714286,   0.00057142857,   0.00058571429,   0.00057142857,   0.00058571429,   0.00058571429,   0.00058571429
         0.0006,          0.0006,          0.0006,   0.00061428571,   0.00061428571,   0.00061428571,   0.00061428571,          0.0006
** ... 178 like lines cut
** 
** MATERIALS
** 
*Material, name=NL-IK
*Elastic
179800., 0.3
*Plastic, hardening=COMBINED, datatype=PARAMETERS, number backstresses=2
 318.5, 11608.2,   145.2,   1026.,     4.7
*Cyclic Hardening, parameters
 318.5, 100.7,    8.
*Material, name=NL-IK-Iso-Only
*Elastic
179800., 0.3
*Plastic, hardening=COMBINED, datatype=PARAMETERS, number backstresses=1
 318.5,0.,1.
*Cyclic Hardening, parameters
 318.5, 100.7,    8.
*Material, name=UMAT
*Depvar
      4,
*User Material, constants=8
179800.,   318.5,   100.7,      8., 11608.2,   145.2,   1026.,     4.7
** ----------------------------------------------------------------
** 
** STEP: Loading
** 
*Step, name=Loading, nlgeom=NO, inc=3000
*Static
0.005, 0.9, 1e-08, 0.005
** 
** BOUNDARY CONDITIONS
** 
** Name: left_bc Type: Displacement/Rotation
*Boundary
Set-1, 1, 1
Set-1, 2, 2
** Name: right_bc Type: Displacement/Rotation
*Boundary
Set-2, 2, 2
** 
** LOADS
** 
** Name: applied_load   Type: Concentrated force
*Cload, amplitude=cyclic
Set-4, 1, 500.
** 
** OUTPUT REQUESTS
** 
*Restart, write, frequency=0
** 
** FIELD OUTPUT: F-Output-1
** 
*Output, field, variable=PRESELECT, time interval=0.005
** 
** HISTORY OUTPUT: H-Output-1
** 
*Output, history, variable=PRESELECT
*End Step
