*Heading
** Job name: Truss-No-UMAT-Disp-Cyclic Model name: Truss-No-UMAT-Disp-Cyclic
** Generated by: Abaqus/CAE 6.14-1
*Preprint, echo=NO, model=NO, history=NO, contact=NO
**
** PARTS
**
*Part, name=truss
*Node
      1,           0.,           0.,           0.
      2,        1000.,           0.,           0.
*Element, type=T3D2
1, 1, 2
*Nset, nset=Set-1
 1, 2
*Elset, elset=Set-1
 1,
*Nset, nset=Set-2
 1, 2
*Elset, elset=Set-2
 1,
*Nset, nset=Set-6
 1, 2
*Elset, elset=Set-6
 1,
*Orientation, name=Ori-1
1., 0., 0., 0., 1., 0.
1, 0.
** Section: truss-no-umat
*Solid Section, elset=Set-6, material=NL-IK
1.,
*End Part
**  
**
** ASSEMBLY
**
*Assembly, name=Assembly
**  
*Instance, name=truss-1, part=truss
*End Instance
**  
*Nset, nset=Set-1, instance=truss-1
 1,
*Nset, nset=Set-2, instance=truss-1
 2,
*Nset, nset=Set-3, instance=truss-1
 2,
*Nset, nset=Set-4, instance=truss-1
 2,
*End Assembly
*Amplitude, name=cyclic, definition=EQUALLY SPACED, fixed interval=0.1
             0.,            0.25,           -0.25,             0.5,            -0.5,            0.75,           -0.75,              1.
            -1.,              0.
** MATERIALS
** 
*Material, name=NL-IK
*Elastic
179800., 0.3
*Plastic, hardening=COMBINED, datatype=PARAMETERS, number backstresses=2
 318.5, 11608.2,   145.2,   1026.,     4.7
*Cyclic Hardening, parameters
 318.5, 100.7,    8.
** ----------------------------------------------------------------
** 
** STEP: Loading
** 
*Step, name=Loading, nlgeom=NO, inc=3000
*Static
0.01, 0.9, 1e-08, 0.01
** 
** BOUNDARY CONDITIONS
** 
** Name: disp_control Type: Displacement/Rotation
*Boundary, amplitude=cyclic
Set-3, 1, 1, 100.
** Name: left_bc Type: Displacement/Rotation
*Boundary
Set-1, 1, 1
Set-1, 2, 2
** Name: right_bc Type: Displacement/Rotation
*Boundary
Set-2, 2, 2
** 
** OUTPUT REQUESTS
** 
*Restart, write, frequency=0
** 
** FIELD OUTPUT: F-Output-1
** 
*Output, field, variable=PRESELECT, time interval=0.01
** 
** HISTORY OUTPUT: H-Output-1
** 
*Output, history, variable=PRESELECT
*End Step
